# Computational Materials Screening: Highly Stable Phases of ABX3 Compounds
# Be8Cs8F24
data_Be8Cs8F24
_pd_phase_name Be8Cs8F24
_cell_length_a  11.4623099080
_cell_length_b  11.0650356135
_cell_length_c  8.1162468088
_cell_angle_alpha  89.6479465787
_cell_angle_beta  134.1699324336
_cell_angle_gamma  90.1714735346
_symmetry_space_group_name_H-M  'P1'
_symmetry_Int_Tables_Number  1
loop_
_symmetry_equiv_pos_site_id
_symmetry_equiv_pos_as_xyz
  1  x,y,z
loop_
 _atom_site_label
 _atom_site_occupancy
 _atom_site_fract_x
 _atom_site_fract_y
 _atom_site_fract_z
 _atom_site_thermal_displace_type
 _atom_site_B_iso_or_equiv
 _atom_site_type_symbol
 _atom_site_symmetry_multiplicity
 _atom_site_Wyckoff_label
Be1 1.0000000000 0.2166412735 0.7967843981 0.5325175304  Biso 1.0 Be 1 a
Be2 1.0000000000 0.8692100370 0.7585428233 0.0820933055  Biso 1.0 Be 1 a
Be3 1.0000000000 0.2142789069 0.7400435014 0.9183514404  Biso 1.0 Be 1 a
Be4 1.0000000000 0.2719924185 0.3011832289 0.4774319601  Biso 1.0 Be 1 a
Be5 1.0000000000 0.8677102768 0.7822688011 0.6830668945  Biso 1.0 Be 1 a
Be6 1.0000000000 0.6279714820 0.2565100185 0.8254857357  Biso 1.0 Be 1 a
Be7 1.0000000000 0.2730570221 0.2419717188 0.0905930674  Biso 1.0 Be 1 a
Be8 1.0000000000 0.6282938644 0.2783675335 0.4308277421  Biso 1.0 Be 1 a
Cs9 1.0000000000 0.9869795731 0.0564016719 0.0328995268  Biso 1.0 Cs 1 a
Cs10 1.0000000000 0.5050491709 0.9594016979 0.5266066196  Biso 1.0 Cs 1 a
Cs11 1.0000000000 0.9950236054 0.0689482778 0.5345065596  Biso 1.0 Cs 1 a
Cs12 1.0000000000 0.9802539450 0.4833484457 0.9697159304  Biso 1.0 Cs 1 a
Cs13 1.0000000000 0.5257284846 0.9848381330 0.0446636733  Biso 1.0 Cs 1 a
Cs14 1.0000000000 0.5040420297 0.5768699032 0.4958170729  Biso 1.0 Cs 1 a
Cs15 1.0000000000 0.9858756085 0.4706458766 0.4796834348  Biso 1.0 Cs 1 a
Cs16 1.0000000000 0.5142139296 0.5457819852 0.0050878779  Biso 1.0 Cs 1 a
F17 1.0000000000 0.0633248581 0.7382393283 0.2919258780  Biso 1.0 F 1 a
F18 1.0000000000 0.3752491405 0.7406180860 0.6279268250  Biso 1.0 F 1 a
F19 1.0000000000 0.0610658108 0.8035992292 0.8517472950  Biso 1.0 F 1 a
F20 1.0000000000 0.7186837511 0.1469459808 0.9818518919  Biso 1.0 F 1 a
F21 1.0000000000 0.8111873184 0.6664154157 0.5485229863  Biso 1.0 F 1 a
F22 1.0000000000 0.4394009968 0.2393051619 0.6927412800  Biso 1.0 F 1 a
F23 1.0000000000 0.1270637401 0.2948118484 0.8571775696  Biso 1.0 F 1 a
F24 1.0000000000 0.4391410706 0.3029630186 0.1979455755  Biso 1.0 F 1 a
F25 1.0000000000 0.3728547783 0.7964236770 0.1337303815  Biso 1.0 F 1 a
F26 1.0000000000 0.8422315412 0.7669916627 0.8565285512  Biso 1.0 F 1 a
F27 1.0000000000 0.1935871836 0.7650263868 0.7027186691  Biso 1.0 F 1 a
F28 1.0000000000 0.2503329387 0.2767669165 0.2607322229  Biso 1.0 F 1 a
F29 1.0000000000 0.7846753851 0.6437496148 0.0554914437  Biso 1.0 F 1 a
F30 1.0000000000 0.6291253180 0.2456769135 0.6266399916  Biso 1.0 F 1 a
F31 1.0000000000 0.1271801269 0.2434683518 0.4202439264  Biso 1.0 F 1 a
F32 1.0000000000 0.6957845688 0.1705228700 0.4072670755  Biso 1.0 F 1 a
F33 1.0000000000 0.2180026469 0.9344339686 0.5099384847  Biso 1.0 F 1 a
F34 1.0000000000 0.8137882162 0.8771981736 0.1004561682  Biso 1.0 F 1 a
F35 1.0000000000 0.2833090209 0.1040951353 0.0868354517  Biso 1.0 F 1 a
F36 1.0000000000 0.2790561746 0.4383372881 0.5095901051  Biso 1.0 F 1 a
F37 1.0000000000 0.7823618884 0.8995996381 0.5511733070  Biso 1.0 F 1 a
F38 1.0000000000 0.6908516116 0.3802277872 0.9340736182  Biso 1.0 F 1 a
F39 1.0000000000 0.2128040002 0.6030722014 0.9472543521  Biso 1.0 F 1 a
F40 1.0000000000 0.7145202352 0.3984598448 0.4857593879  Biso 1.0 F 1 a
