# Computational Materials Screening: Highly Stable Phases of ABX3 Compounds
# Be8F24K8
data_Be8F24K8
_pd_phase_name Be8F24K8
_cell_length_a  8.5979702035
_cell_length_b  10.2743598589
_cell_length_c  7.7366312071
_cell_angle_alpha  90.0604086651
_cell_angle_beta  88.9752518480
_cell_angle_gamma  90.0092861971
_symmetry_space_group_name_H-M  'P2_{1}/m'
_symmetry_Int_Tables_Number  11
loop_
_symmetry_equiv_pos_site_id
_symmetry_equiv_pos_as_xyz
  1  x,y,z
  2  -x,y+1/2,-z
  3  -x,-y,-z
  4  x,-y+1/2,z
loop_
 _atom_site_label
 _atom_site_occupancy
 _atom_site_fract_x
 _atom_site_fract_y
 _atom_site_fract_z
 _atom_site_thermal_displace_type
 _atom_site_B_iso_or_equiv
 _atom_site_type_symbol
 _atom_site_symmetry_multiplicity
 _atom_site_Wyckoff_label
Be1 1.0000000000 0.2979934354 0.2503006353 0.9779634618  Biso 1.0 Be 2 e
Be2 1.0000000000 0.6202264954 0.2514046362 0.4333805198  Biso 1.0 Be 2 e
Be3 1.0000000000 0.9484800131 0.2504216673 0.9895969394  Biso 1.0 Be 2 e
Be4 1.0000000000 0.1281631187 0.2507885874 0.3200306187  Biso 1.0 Be 2 e
F5 1.0000000000 0.6278757501 0.6225749718 0.0765598769  Biso 1.0 F 4 f
F6 1.0000000000 0.3906593298 0.6253008887 0.6555978854  Biso 1.0 F 4 f
F7 1.0000000000 0.1263736413 0.6226862414 0.0570344972  Biso 1.0 F 4 f
F8 1.0000000000 0.1285838913 0.3782101075 0.4199019419  Biso 1.0 F 4 f
F9 1.0000000000 0.1222984580 0.2508046044 0.9037306403  Biso 1.0 F 2 e
F10 1.0000000000 0.9760271635 0.2489015378 0.1982720602  Biso 1.0 F 2 e
F11 1.0000000000 0.2739210073 0.2493601992 0.1854406888  Biso 1.0 F 2 e
F12 1.0000000000 0.6499720831 0.2471691462 0.6198888977  Biso 1.0 F 2 e
K13 1.0000000000 0.6287399974 0.4767199371 0.7771884097  Biso 1.0 K 4 f
K14 1.0000000000 0.8726701096 0.5117461973 0.2613837906  Biso 1.0 K 4 f
