# Computational Materials Screening: Highly Stable Phases of ABX3 Compounds
# Br24Ge8K8
data_Br24Ge8K8
_pd_phase_name Br24Ge8K8
_cell_length_a  11.1741148253
_cell_length_b  11.3128022830
_cell_length_c  11.3464618251
_cell_angle_alpha  94.1370728624
_cell_angle_beta  90.1876844374
_cell_angle_gamma  90.3653092840
_symmetry_space_group_name_H-M  'P1'
_symmetry_Int_Tables_Number  1
loop_
_symmetry_equiv_pos_site_id
_symmetry_equiv_pos_as_xyz
  1  x,y,z
loop_
 _atom_site_label
 _atom_site_occupancy
 _atom_site_fract_x
 _atom_site_fract_y
 _atom_site_fract_z
 _atom_site_thermal_displace_type
 _atom_site_B_iso_or_equiv
 _atom_site_type_symbol
 _atom_site_symmetry_multiplicity
 _atom_site_Wyckoff_label
Br1 1.0000000000 0.1751427447 0.1953868541 0.9783049794  Biso 1.0 Br 1 a
Br2 1.0000000000 0.2946752885 0.3061015982 0.4847378812  Biso 1.0 Br 1 a
Br3 1.0000000000 0.3019707491 0.8066806551 0.0078590539  Biso 1.0 Br 1 a
Br4 1.0000000000 0.7851640586 0.2015029314 0.9896082601  Biso 1.0 Br 1 a
Br5 1.0000000000 0.1968775104 0.6899455830 0.5057522873  Biso 1.0 Br 1 a
Br6 1.0000000000 0.6872102965 0.3282453972 0.4908839954  Biso 1.0 Br 1 a
Br7 1.0000000000 0.6904111032 0.8183350445 0.0330814886  Biso 1.0 Br 1 a
Br8 1.0000000000 0.8067897513 0.7025282958 0.5202093513  Biso 1.0 Br 1 a
Br9 1.0000000000 0.3067750257 0.9667593284 0.6919795250  Biso 1.0 Br 1 a
Br10 1.0000000000 0.1862973217 0.0286447493 0.3031253235  Biso 1.0 Br 1 a
Br11 1.0000000000 0.1859756145 0.4707581500 0.8049467647  Biso 1.0 Br 1 a
Br12 1.0000000000 0.6979430572 0.9823890136 0.6940548329  Biso 1.0 Br 1 a
Br13 1.0000000000 0.2977137622 0.5259941991 0.1766793231  Biso 1.0 Br 1 a
Br14 1.0000000000 0.7987414208 0.0037863039 0.3110455275  Biso 1.0 Br 1 a
Br15 1.0000000000 0.7930437617 0.4851107230 0.8244240893  Biso 1.0 Br 1 a
Br16 1.0000000000 0.6853082635 0.4981258528 0.2066218879  Biso 1.0 Br 1 a
Br17 1.0000000000 0.0057412889 0.2045664562 0.6824351992  Biso 1.0 Br 1 a
Br18 1.0000000000 0.9663967239 0.3344994675 0.2971770732  Biso 1.0 Br 1 a
Br19 1.0000000000 0.9789341870 0.8223975731 0.7885415477  Biso 1.0 Br 1 a
Br20 1.0000000000 0.5125125137 0.2848515098 0.8134141764  Biso 1.0 Br 1 a
Br21 1.0000000000 0.0203184290 0.7221759740 0.1774296993  Biso 1.0 Br 1 a
Br22 1.0000000000 0.4670347514 0.1885827246 0.2171555688  Biso 1.0 Br 1 a
Br23 1.0000000000 0.4787360854 0.6743436995 0.7021362828  Biso 1.0 Br 1 a
Br24 1.0000000000 0.5160922328 0.8114175738 0.3243485789  Biso 1.0 Br 1 a
Ge25 1.0000000000 0.2170035768 0.2468550428 0.7645598206  Biso 1.0 Ge 1 a
Ge26 1.0000000000 0.2490661517 0.2410769148 0.2678460240  Biso 1.0 Ge 1 a
Ge27 1.0000000000 0.2619056744 0.7472523557 0.7215074539  Biso 1.0 Ge 1 a
Ge28 1.0000000000 0.7410443681 0.2626843177 0.7803895789  Biso 1.0 Ge 1 a
Ge29 1.0000000000 0.2473519816 0.7482285160 0.2155279716  Biso 1.0 Ge 1 a
Ge30 1.0000000000 0.7406028537 0.2904090860 0.2702762382  Biso 1.0 Ge 1 a
Ge31 1.0000000000 0.7599509663 0.7710735507 0.7346024229  Biso 1.0 Ge 1 a
Ge32 1.0000000000 0.7321528805 0.7886173944 0.2542113325  Biso 1.0 Ge 1 a
K33 1.0000000000 0.9793334298 0.9801112738 0.0520007826  Biso 1.0 K 1 a
K34 1.0000000000 0.0056222329 0.9417185050 0.5239160420  Biso 1.0 K 1 a
K35 1.0000000000 0.0022669466 0.4500470249 0.0378139986  Biso 1.0 K 1 a
K36 1.0000000000 0.4938079605 0.0313263924 0.9530149286  Biso 1.0 K 1 a
K37 1.0000000000 0.9894055280 0.4733764115 0.5695587837  Biso 1.0 K 1 a
K38 1.0000000000 0.5023766071 0.0737915257 0.4843877810  Biso 1.0 K 1 a
K39 1.0000000000 0.5109147611 0.5566621702 0.9646057998  Biso 1.0 K 1 a
K40 1.0000000000 0.4790319305 0.5387210967 0.4304364390  Biso 1.0 K 1 a
