# Computational Materials Screening: Highly Stable Phases of ABX3 Compounds
# Cl24Ge8K8
data_Cl24Ge8K8
_pd_phase_name Cl24Ge8K8
_cell_length_a  10.8446442370
_cell_length_b  10.9407998577
_cell_length_c  10.7008101207
_cell_angle_alpha  89.3574301753
_cell_angle_beta  89.5918639624
_cell_angle_gamma  86.7771648723
_symmetry_space_group_name_H-M  'P1'
_symmetry_Int_Tables_Number  1
loop_
_symmetry_equiv_pos_site_id
_symmetry_equiv_pos_as_xyz
  1  x,y,z
loop_
 _atom_site_label
 _atom_site_occupancy
 _atom_site_fract_x
 _atom_site_fract_y
 _atom_site_fract_z
 _atom_site_thermal_displace_type
 _atom_site_B_iso_or_equiv
 _atom_site_type_symbol
 _atom_site_symmetry_multiplicity
 _atom_site_Wyckoff_label
Cl1 1.0000000000 0.9737050658 0.1725926363 0.3030965540  Biso 1.0 Cl 1 a
Cl2 1.0000000000 0.4733766259 0.2900721766 0.1809596537  Biso 1.0 Cl 1 a
Cl3 1.0000000000 0.9585418354 0.1878348049 0.6908143276  Biso 1.0 Cl 1 a
Cl4 1.0000000000 0.0421791514 0.8064919885 0.1913197829  Biso 1.0 Cl 1 a
Cl5 1.0000000000 0.4507553260 0.3205807414 0.8033808622  Biso 1.0 Cl 1 a
Cl6 1.0000000000 0.5517802606 0.6726569833 0.3110421164  Biso 1.0 Cl 1 a
Cl7 1.0000000000 0.9633290977 0.8064448634 0.8206744099  Biso 1.0 Cl 1 a
Cl8 1.0000000000 0.4738214609 0.7105439284 0.6887730311  Biso 1.0 Cl 1 a
Cl9 1.0000000000 0.7821933088 0.1552877048 0.0364215098  Biso 1.0 Cl 1 a
Cl10 1.0000000000 0.1653940704 0.2965081719 0.9667585694  Biso 1.0 Cl 1 a
Cl11 1.0000000000 0.7051556700 0.3191864867 0.5296703847  Biso 1.0 Cl 1 a
Cl12 1.0000000000 0.6749118779 0.7886104287 0.9851977865  Biso 1.0 Cl 1 a
Cl13 1.0000000000 0.3281979368 0.2176612106 0.4666838452  Biso 1.0 Cl 1 a
Cl14 1.0000000000 0.2997000365 0.6794905469 0.9679614944  Biso 1.0 Cl 1 a
Cl15 1.0000000000 0.8343161823 0.6878946174 0.4814791245  Biso 1.0 Cl 1 a
Cl16 1.0000000000 0.2179680202 0.8333773482 0.4635868222  Biso 1.0 Cl 1 a
Cl17 1.0000000000 0.7057634058 0.0045007400 0.3200899768  Biso 1.0 Cl 1 a
Cl18 1.0000000000 0.3156381401 0.9734361978 0.1862065039  Biso 1.0 Cl 1 a
Cl19 1.0000000000 0.6784255500 0.0388994636 0.6989304746  Biso 1.0 Cl 1 a
Cl20 1.0000000000 0.8221509907 0.5058091304 0.2070839226  Biso 1.0 Cl 1 a
Cl21 1.0000000000 0.2952290341 0.9676213768 0.8041546509  Biso 1.0 Cl 1 a
Cl22 1.0000000000 0.2131232879 0.4715946503 0.2955987308  Biso 1.0 Cl 1 a
Cl23 1.0000000000 0.7954177625 0.5334105337 0.8268540576  Biso 1.0 Cl 1 a
Cl24 1.0000000000 0.1808077811 0.4784183828 0.6886716387  Biso 1.0 Cl 1 a
Ge25 1.0000000000 0.7575997049 0.2061921630 0.2539234062  Biso 1.0 Ge 1 a
Ge26 1.0000000000 0.2677685260 0.2594281678 0.2533395574  Biso 1.0 Ge 1 a
Ge27 1.0000000000 0.7452747901 0.2414795106 0.7351253751  Biso 1.0 Ge 1 a
Ge28 1.0000000000 0.7640472293 0.7130298280 0.2696184929  Biso 1.0 Ge 1 a
Ge29 1.0000000000 0.2413649908 0.2750820641 0.7564301413  Biso 1.0 Ge 1 a
Ge30 1.0000000000 0.2542110888 0.7747563113 0.2491724516  Biso 1.0 Ge 1 a
Ge31 1.0000000000 0.7555849965 0.7465271614 0.7809550848  Biso 1.0 Ge 1 a
Ge32 1.0000000000 0.2666442801 0.7548504315 0.7588056732  Biso 1.0 Ge 1 a
K33 1.0000000000 0.0519908311 0.0307213839 0.9992461783  Biso 1.0 K 1 a
K34 1.0000000000 0.5200212912 0.0483427440 0.9772563634  Biso 1.0 K 1 a
K35 1.0000000000 0.9445418016 0.9545661087 0.5074951879  Biso 1.0 K 1 a
K36 1.0000000000 0.0342637599 0.5631562435 0.0004812545  Biso 1.0 K 1 a
K37 1.0000000000 0.4741569622 0.9581728993 0.4969078380  Biso 1.0 K 1 a
K38 1.0000000000 0.5542245200 0.5235219758 0.0180115799  Biso 1.0 K 1 a
K39 1.0000000000 0.9751984268 0.4238094226 0.4754812475  Biso 1.0 K 1 a
K40 1.0000000000 0.4455759096 0.4763656319 0.5119062984  Biso 1.0 K 1 a
