# Computational Materials Screening: Highly Stable Phases of ABX3 Compounds
# Cl24K8Sn8
data_Cl24K8Sn8
_pd_phase_name Cl24K8Sn8
_cell_length_a  10.9115602976
_cell_length_b  11.0374655870
_cell_length_c  11.0810492593
_cell_angle_alpha  86.0749953551
_cell_angle_beta  89.9242474684
_cell_angle_gamma  89.9276975780
_symmetry_space_group_name_H-M  'P1'
_symmetry_Int_Tables_Number  1
loop_
_symmetry_equiv_pos_site_id
_symmetry_equiv_pos_as_xyz
  1  x,y,z
loop_
 _atom_site_label
 _atom_site_occupancy
 _atom_site_fract_x
 _atom_site_fract_y
 _atom_site_fract_z
 _atom_site_thermal_displace_type
 _atom_site_B_iso_or_equiv
 _atom_site_type_symbol
 _atom_site_symmetry_multiplicity
 _atom_site_Wyckoff_label
Cl1 1.0000000000 0.3043340798 0.9839269734 0.6701865234  Biso 1.0 Cl 1 a
Cl2 1.0000000000 0.1664835319 0.4805971097 0.7880943275  Biso 1.0 Cl 1 a
Cl3 1.0000000000 0.6637920835 0.0153307823 0.6990692080  Biso 1.0 Cl 1 a
Cl4 1.0000000000 0.1973774453 0.0288009504 0.2852245767  Biso 1.0 Cl 1 a
Cl5 1.0000000000 0.8051095925 0.5125685342 0.8191162521  Biso 1.0 Cl 1 a
Cl6 1.0000000000 0.3062448147 0.5388392573 0.1574537198  Biso 1.0 Cl 1 a
Cl7 1.0000000000 0.8177566792 0.0143693071 0.3114571624  Biso 1.0 Cl 1 a
Cl8 1.0000000000 0.6763183858 0.5180418953 0.2126981954  Biso 1.0 Cl 1 a
Cl9 1.0000000000 0.9709520788 0.1442516853 0.7815671535  Biso 1.0 Cl 1 a
Cl10 1.0000000000 0.0287267341 0.7835924160 0.6414780334  Biso 1.0 Cl 1 a
Cl11 1.0000000000 0.4709318688 0.3388245146 0.7198395993  Biso 1.0 Cl 1 a
Cl12 1.0000000000 0.0295622605 0.2922461571 0.1497339690  Biso 1.0 Cl 1 a
Cl13 1.0000000000 0.5258018390 0.7151372864 0.8272064922  Biso 1.0 Cl 1 a
Cl14 1.0000000000 0.9832484098 0.6509856192 0.2843470900  Biso 1.0 Cl 1 a
Cl15 1.0000000000 0.5306110917 0.2150544114 0.3420237713  Biso 1.0 Cl 1 a
Cl16 1.0000000000 0.4854303349 0.8344302386 0.1998823469  Biso 1.0 Cl 1 a
Cl17 1.0000000000 0.3375443827 0.2181528695 0.0210358426  Biso 1.0 Cl 1 a
Cl18 1.0000000000 0.1970066739 0.8313844195 0.0016345909  Biso 1.0 Cl 1 a
Cl19 1.0000000000 0.6963675555 0.1760578789 0.9824094839  Biso 1.0 Cl 1 a
Cl20 1.0000000000 0.1939054751 0.3104276497 0.5188549822  Biso 1.0 Cl 1 a
Cl21 1.0000000000 0.8231303157 0.7888616010 0.0204426258  Biso 1.0 Cl 1 a
Cl22 1.0000000000 0.3320655864 0.7013427936 0.5059760537  Biso 1.0 Cl 1 a
Cl23 1.0000000000 0.8294759477 0.2920983040 0.4788797284  Biso 1.0 Cl 1 a
Cl24 1.0000000000 0.6995539847 0.6800475826 0.5294361016  Biso 1.0 Cl 1 a
K25 1.0000000000 0.9833620845 0.0290377753 0.0539696995  Biso 1.0 K 1 a
K26 1.0000000000 0.0202154050 0.5581009371 0.0195838011  Biso 1.0 K 1 a
K27 1.0000000000 0.4798434836 0.9761455719 0.9393128705  Biso 1.0 K 1 a
K28 1.0000000000 0.0277968390 0.0541396787 0.5176554185  Biso 1.0 K 1 a
K29 1.0000000000 0.5251808339 0.4563697152 0.9737773498  Biso 1.0 K 1 a
K30 1.0000000000 0.9845011785 0.5201976476 0.5500352360  Biso 1.0 K 1 a
K31 1.0000000000 0.5131051148 0.9454148983 0.4640294149  Biso 1.0 K 1 a
K32 1.0000000000 0.5006382753 0.4733300440 0.4602728895  Biso 1.0 K 1 a
Sn33 1.0000000000 0.2430383034 0.2614632802 0.7499543307  Biso 1.0 Sn 1 a
Sn34 1.0000000000 0.2551211897 0.7518160008 0.7221364090  Biso 1.0 Sn 1 a
Sn35 1.0000000000 0.7454504327 0.2282732946 0.7523751908  Biso 1.0 Sn 1 a
Sn36 1.0000000000 0.2536476588 0.2601002127 0.2356060291  Biso 1.0 Sn 1 a
Sn37 1.0000000000 0.7537886748 0.7420267967 0.7530734625  Biso 1.0 Sn 1 a
Sn38 1.0000000000 0.2565275868 0.7603746441 0.2268277933  Biso 1.0 Sn 1 a
Sn39 1.0000000000 0.7574037003 0.2466033785 0.2617794613  Biso 1.0 Sn 1 a
Sn40 1.0000000000 0.7602400507 0.7380556980 0.2486696106  Biso 1.0 Sn 1 a
