# Computational Materials Screening: Highly Stable Phases of ABX3 Compounds
# F24K8Sn8
data_F24K8Sn8
_pd_phase_name F24K8Sn8
_cell_length_a  8.8833906106
_cell_length_b  10.4185844559
_cell_length_c  9.5724611499
_cell_angle_alpha  88.5919171340
_cell_angle_beta  89.9073990761
_cell_angle_gamma  88.9256484675
_symmetry_space_group_name_H-M  'P1'
_symmetry_Int_Tables_Number  1
loop_
_symmetry_equiv_pos_site_id
_symmetry_equiv_pos_as_xyz
  1  x,y,z
loop_
 _atom_site_label
 _atom_site_occupancy
 _atom_site_fract_x
 _atom_site_fract_y
 _atom_site_fract_z
 _atom_site_thermal_displace_type
 _atom_site_B_iso_or_equiv
 _atom_site_type_symbol
 _atom_site_symmetry_multiplicity
 _atom_site_Wyckoff_label
F1 1.0000000000 0.0620824077 0.2621449720 0.3733524952  Biso 1.0 F 1 a
F2 1.0000000000 0.5505994454 0.2708237428 0.1751311774  Biso 1.0 F 1 a
F3 1.0000000000 0.0215216014 0.8900435325 0.2322899103  Biso 1.0 F 1 a
F4 1.0000000000 0.9397524074 0.3294567989 0.7169502027  Biso 1.0 F 1 a
F5 1.0000000000 0.5353319163 0.7125637538 0.2436100584  Biso 1.0 F 1 a
F6 1.0000000000 0.4412245705 0.1335700305 0.7797478881  Biso 1.0 F 1 a
F7 1.0000000000 0.9896354833 0.6698880957 0.7729188489  Biso 1.0 F 1 a
F8 1.0000000000 0.4894117649 0.7301123117 0.6889022584  Biso 1.0 F 1 a
F9 1.0000000000 0.2820005652 0.9210781368 0.3888550277  Biso 1.0 F 1 a
F10 1.0000000000 0.7169166783 0.9234390461 0.3625684820  Biso 1.0 F 1 a
F11 1.0000000000 0.2991675371 0.4363121315 0.2730608659  Biso 1.0 F 1 a
F12 1.0000000000 0.1393190990 0.0713920478 0.7101916484  Biso 1.0 F 1 a
F13 1.0000000000 0.8160839334 0.4320446708 0.1548780562  Biso 1.0 F 1 a
F14 1.0000000000 0.7606903096 0.1009815330 0.6354571613  Biso 1.0 F 1 a
F15 1.0000000000 0.2782184736 0.5794458685 0.8873521529  Biso 1.0 F 1 a
F16 1.0000000000 0.7100007858 0.5702868474 0.8644814181  Biso 1.0 F 1 a
F17 1.0000000000 0.1781310480 0.2393947136 0.9459446014  Biso 1.0 F 1 a
F18 1.0000000000 0.7697486292 0.1836564797 0.9247121248  Biso 1.0 F 1 a
F19 1.0000000000 0.2886751607 0.9072419975 0.0745461782  Biso 1.0 F 1 a
F20 1.0000000000 0.3773988436 0.2195469423 0.4672756711  Biso 1.0 F 1 a
F21 1.0000000000 0.7427836349 0.8683076291 0.0614254288  Biso 1.0 F 1 a
F22 1.0000000000 0.7226094776 0.3565913608 0.4262319133  Biso 1.0 F 1 a
F23 1.0000000000 0.2287323792 0.6139106830 0.5765752715  Biso 1.0 F 1 a
F24 1.0000000000 0.7600159019 0.6380123366 0.5608138012  Biso 1.0 F 1 a
K25 1.0000000000 0.0095133009 0.0217752179 0.9699760274  Biso 1.0 K 1 a
K26 1.0000000000 0.5290127027 0.0423576838 0.0205138516  Biso 1.0 K 1 a
K27 1.0000000000 0.0024980579 0.4653313726 0.9458967650  Biso 1.0 K 1 a
K28 1.0000000000 0.9894050723 0.0224169424 0.4805598907  Biso 1.0 K 1 a
K29 1.0000000000 0.5054638125 0.5121247490 0.0580246083  Biso 1.0 K 1 a
K30 1.0000000000 0.5058304331 0.9900213409 0.5474138249  Biso 1.0 K 1 a
K31 1.0000000000 0.9900023189 0.4854149002 0.4949693685  Biso 1.0 K 1 a
K32 1.0000000000 0.4938550464 0.5300407141 0.4761081951  Biso 1.0 K 1 a
Sn33 1.0000000000 0.2773520282 0.2381150249 0.2702986932  Biso 1.0 Sn 1 a
Sn34 1.0000000000 0.7774728836 0.2554566629 0.2484482139  Biso 1.0 Sn 1 a
Sn35 1.0000000000 0.2343487827 0.7868571667 0.2409489188  Biso 1.0 Sn 1 a
Sn36 1.0000000000 0.2435181083 0.2461354441 0.7329493735  Biso 1.0 Sn 1 a
Sn37 1.0000000000 0.7716279121 0.7634817523 0.2477186133  Biso 1.0 Sn 1 a
Sn38 1.0000000000 0.7119610235 0.2727899612 0.7314222418  Biso 1.0 Sn 1 a
Sn39 1.0000000000 0.2416012246 0.7330659316 0.7470648822  Biso 1.0 Sn 1 a
Sn40 1.0000000000 0.7470111100 0.7359344241 0.7478065401  Biso 1.0 Sn 1 a
