# Computational Materials Screening: Highly Stable Phases of ABX3 Compounds
# Be8Cl24Li8
data_Be8Cl24Li8
_pd_phase_name Be8Cl24Li8
_cell_length_a  9.9222802720
_cell_length_b  12.3902144150
_cell_length_c  9.1387325059
_cell_angle_alpha  81.2352882087
_cell_angle_beta  81.0884705044
_cell_angle_gamma  78.3805274898
_symmetry_space_group_name_H-M  'P1'
_symmetry_Int_Tables_Number  1
loop_
_symmetry_equiv_pos_site_id
_symmetry_equiv_pos_as_xyz
  1  x,y,z
loop_
 _atom_site_label
 _atom_site_occupancy
 _atom_site_fract_x
 _atom_site_fract_y
 _atom_site_fract_z
 _atom_site_thermal_displace_type
 _atom_site_B_iso_or_equiv
 _atom_site_type_symbol
 _atom_site_symmetry_multiplicity
 _atom_site_Wyckoff_label
Be1 1.0000000000 0.3462058755 0.6400572327 0.2274395761  Biso 1.0 Be 1 a
Be2 1.0000000000 0.3002797587 0.0663846116 0.1839261894  Biso 1.0 Be 1 a
Be3 1.0000000000 0.6844167296 0.7090573270 0.2329990835  Biso 1.0 Be 1 a
Be4 1.0000000000 0.2311351289 0.6943988263 0.8785342932  Biso 1.0 Be 1 a
Be5 1.0000000000 0.8123661106 0.1438124341 0.2540816918  Biso 1.0 Be 1 a
Be6 1.0000000000 0.0496185993 0.2796391654 0.6844654985  Biso 1.0 Be 1 a
Be7 1.0000000000 0.7380924844 0.7904628857 0.5723900316  Biso 1.0 Be 1 a
Be8 1.0000000000 0.6421917721 0.2024297724 0.5965728316  Biso 1.0 Be 1 a
Cl9 1.0000000000 0.2469059859 0.9922393924 0.3838435603  Biso 1.0 Cl 1 a
Cl10 1.0000000000 0.4042636238 0.4724551288 0.2673186478  Biso 1.0 Cl 1 a
Cl11 1.0000000000 0.9392712901 0.0536940021 0.1237610766  Biso 1.0 Cl 1 a
Cl12 1.0000000000 0.1219901091 0.1248296606 0.7225417656  Biso 1.0 Cl 1 a
Cl13 1.0000000000 0.7926895736 0.5508413772 0.2609428766  Biso 1.0 Cl 1 a
Cl14 1.0000000000 0.0978279239 0.5987058761 0.9228550605  Biso 1.0 Cl 1 a
Cl15 1.0000000000 0.6650293690 0.1313898330 0.8088300236  Biso 1.0 Cl 1 a
Cl16 1.0000000000 0.7421273363 0.6302939797 0.6668807519  Biso 1.0 Cl 1 a
Cl17 1.0000000000 0.1544766953 0.6954384659 0.3110004894  Biso 1.0 Cl 1 a
Cl18 1.0000000000 0.2905867600 0.2240192806 0.1557819307  Biso 1.0 Cl 1 a
Cl19 1.0000000000 0.4793231136 0.7143911663 0.3171050788  Biso 1.0 Cl 1 a
Cl20 1.0000000000 0.9041922899 0.8366915304 0.6338455061  Biso 1.0 Cl 1 a
Cl21 1.0000000000 0.8133272998 0.1131280812 0.4684719891  Biso 1.0 Cl 1 a
Cl22 1.0000000000 0.9179076919 0.3497082096 0.8342239922  Biso 1.0 Cl 1 a
Cl23 1.0000000000 0.5633515537 0.8906860362 0.6595052296  Biso 1.0 Cl 1 a
Cl24 1.0000000000 0.4598810482 0.1872919124 0.5329094663  Biso 1.0 Cl 1 a
Cl25 1.0000000000 0.3861771978 0.6787865843 0.9954016128  Biso 1.0 Cl 1 a
Cl26 1.0000000000 0.3616792301 0.9799936499 0.0212581178  Biso 1.0 Cl 1 a
Cl27 1.0000000000 0.7155071763 0.7739274072 0.0155512779  Biso 1.0 Cl 1 a
Cl28 1.0000000000 0.2372827496 0.8073946070 0.7096516723  Biso 1.0 Cl 1 a
Cl29 1.0000000000 0.6876053057 0.2658693925 0.1626993621  Biso 1.0 Cl 1 a
Cl30 1.0000000000 0.0795831175 0.3716749102 0.4940545302  Biso 1.0 Cl 1 a
Cl31 1.0000000000 0.7564908110 0.8130036262 0.3448519041  Biso 1.0 Cl 1 a
Cl32 1.0000000000 0.6597246889 0.3639541495 0.5624720575  Biso 1.0 Cl 1 a
Li33 1.0000000000 0.8405042204 0.1813777950 0.9281452984  Biso 1.0 Li 1 a
Li34 1.0000000000 0.8862238385 0.6858710974 0.8305216782  Biso 1.0 Li 1 a
Li35 1.0000000000 0.5905201491 0.9454807257 0.8902445665  Biso 1.0 Li 1 a
Li36 1.0000000000 0.1330395243 0.8192853433 0.4839570599  Biso 1.0 Li 1 a
Li37 1.0000000000 0.6364638806 0.4241525049 0.3042278453  Biso 1.0 Li 1 a
Li38 1.0000000000 0.8392545495 0.4867553180 0.5168304107  Biso 1.0 Li 1 a
Li39 1.0000000000 0.3528098927 0.0205620271 0.5957168474  Biso 1.0 Li 1 a
Li40 1.0000000000 0.3102490774 0.3105753533 0.3623323743  Biso 1.0 Li 1 a
