# Computational Materials Screening: Highly Stable Phases of ABX3 Compounds
# Be8Br24Li8
data_Be8Br24Li8
_pd_phase_name Be8Br24Li8
_cell_length_a  13.8348223778
_cell_length_b  9.5125396816
_cell_length_c  11.3695066944
_cell_angle_alpha  74.8999856000
_cell_angle_beta  84.7018602923
_cell_angle_gamma  93.4214090042
_symmetry_space_group_name_H-M  'P1'
_symmetry_Int_Tables_Number  1
loop_
_symmetry_equiv_pos_site_id
_symmetry_equiv_pos_as_xyz
  1  x,y,z
loop_
 _atom_site_label
 _atom_site_occupancy
 _atom_site_fract_x
 _atom_site_fract_y
 _atom_site_fract_z
 _atom_site_thermal_displace_type
 _atom_site_B_iso_or_equiv
 _atom_site_type_symbol
 _atom_site_symmetry_multiplicity
 _atom_site_Wyckoff_label
Be1 1.0000000000 0.1873313634 0.3012442546 0.2333452044  Biso 1.0 Be 1 a
Be2 1.0000000000 0.6466401289 0.3801993269 0.2792554691  Biso 1.0 Be 1 a
Be3 1.0000000000 0.0473423423 0.8952040858 0.3532174115  Biso 1.0 Be 1 a
Be4 1.0000000000 0.3835593561 0.1401343398 0.7627946194  Biso 1.0 Be 1 a
Be5 1.0000000000 0.6045283414 0.7642293331 0.2140418111  Biso 1.0 Be 1 a
Be6 1.0000000000 0.9680453074 0.2461670943 0.6804057970  Biso 1.0 Be 1 a
Be7 1.0000000000 0.3042863790 0.8475119197 0.8042064408  Biso 1.0 Be 1 a
Be8 1.0000000000 0.7878865680 0.4979463109 0.7319987190  Biso 1.0 Be 1 a
Br9 1.0000000000 0.7499956347 0.2155298072 0.3461078221  Biso 1.0 Br 1 a
Br10 1.0000000000 0.3075616681 0.3247634784 0.0891417589  Biso 1.0 Br 1 a
Br11 1.0000000000 0.9345389270 0.9458458367 0.2477176992  Biso 1.0 Br 1 a
Br12 1.0000000000 0.0737600798 0.3434775932 0.7550627915  Biso 1.0 Br 1 a
Br13 1.0000000000 0.4648223749 0.6891479388 0.1603190190  Biso 1.0 Br 1 a
Br14 1.0000000000 0.5379448195 0.1219497886 0.7660957469  Biso 1.0 Br 1 a
Br15 1.0000000000 0.1737651817 0.6978255731 0.8368790918  Biso 1.0 Br 1 a
Br16 1.0000000000 0.6559767074 0.5705571570 0.6855223661  Biso 1.0 Br 1 a
Br17 1.0000000000 0.1770588442 0.0395079819 0.3279095150  Biso 1.0 Br 1 a
Br18 1.0000000000 0.5788973177 0.8406652324 0.3750023408  Biso 1.0 Br 1 a
Br19 1.0000000000 0.0554746382 0.3806262688 0.1723669537  Biso 1.0 Br 1 a
Br20 1.0000000000 0.3264591345 0.0224803871 0.6253148594  Biso 1.0 Br 1 a
Br21 1.0000000000 0.7176691723 0.6011357376 0.2363355401  Biso 1.0 Br 1 a
Br22 1.0000000000 0.9961079504 0.0747555146 0.6038842523  Biso 1.0 Br 1 a
Br23 1.0000000000 0.3540044929 0.3675736318 0.7137035939  Biso 1.0 Br 1 a
Br24 1.0000000000 0.8207879192 0.3032810573 0.6750316343  Biso 1.0 Br 1 a
Br25 1.0000000000 0.3009567810 0.9925886405 0.9306799975  Biso 1.0 Br 1 a
Br26 1.0000000000 0.5878354308 0.3286545664 0.1210870507  Biso 1.0 Br 1 a
Br27 1.0000000000 0.4312745146 0.7246864976 0.8189080324  Biso 1.0 Br 1 a
Br28 1.0000000000 0.2391180305 0.3813643765 0.3798814799  Biso 1.0 Br 1 a
Br29 1.0000000000 0.6683345765 0.9477097981 0.0544758662  Biso 1.0 Br 1 a
Br30 1.0000000000 0.5215292239 0.3456383574 0.4213191662  Biso 1.0 Br 1 a
Br31 1.0000000000 0.0506222354 0.6907651601 0.4740869856  Biso 1.0 Br 1 a
Br32 1.0000000000 0.8775565417 0.6016457457 0.8237538471  Biso 1.0 Br 1 a
Li33 1.0000000000 0.9160883505 0.2038882444 0.2515767851  Biso 1.0 Li 1 a
Li34 1.0000000000 0.5156102084 0.8808898150 0.9558003406  Biso 1.0 Li 1 a
Li35 1.0000000000 0.3037693618 0.5063006663 0.8811992385  Biso 1.0 Li 1 a
Li36 1.0000000000 0.1779259712 0.1437951824 0.5297724892  Biso 1.0 Li 1 a
Li37 1.0000000000 0.4285259708 0.4123925222 0.2284850612  Biso 1.0 Li 1 a
Li38 1.0000000000 0.6382541487 0.0757348366 0.2275551228  Biso 1.0 Li 1 a
Li39 1.0000000000 0.0441394425 0.6169997415 0.7075121065  Biso 1.0 Li 1 a
Li40 1.0000000000 0.5403843044 0.3904909565 0.6280309689  Biso 1.0 Li 1 a
