# Computational Materials Screening: Highly Stable Phases of ABX3 Compounds
# Br24Ca8Li8
data_Br24Ca8Li8
_pd_phase_name Br24Ca8Li8
_cell_length_a  14.1882642468
_cell_length_b  14.1821613218
_cell_length_c  20.2713439818
_cell_angle_alpha  89.9739044095
_cell_angle_beta  90.0184096995
_cell_angle_gamma  120.0039787415
_symmetry_space_group_name_H-M  'R3'
_symmetry_Int_Tables_Number  146
loop_
_symmetry_equiv_pos_site_id
_symmetry_equiv_pos_as_xyz
  1  x,y,z
  2  -y,x-y,z
  3  -x+y,-x,z
  4  x+2/3,y+1/3,z+1/3
  5  -y+2/3,x-y+1/3,z+1/3
  6  -x+y+2/3,-x+1/3,z+1/3
  7  x+1/3,y+2/3,z+2/3
  8  -y+1/3,x-y+2/3,z+2/3
  9  -x+y+1/3,-x+2/3,z+2/3
loop_
 _atom_site_label
 _atom_site_occupancy
 _atom_site_fract_x
 _atom_site_fract_y
 _atom_site_fract_z
 _atom_site_thermal_displace_type
 _atom_site_B_iso_or_equiv
 _atom_site_type_symbol
 _atom_site_symmetry_multiplicity
 _atom_site_Wyckoff_label
Br1 1.0000000000 0.1744242521 0.5065183873 0.4886039312  Biso 1.0 Br 9 b
Br2 1.0000000000 0.8385178174 0.5058722336 0.3222379885  Biso 1.0 Br 9 b
Br3 1.0000000000 0.3549790663 0.0132011520 0.3174917427  Biso 1.0 Br 9 b
Br4 1.0000000000 0.3432761823 0.5070565448 0.3265476389  Biso 1.0 Br 9 b
Br5 1.0000000000 0.6602561414 0.9998972476 0.5061888943  Biso 1.0 Br 9 b
Br6 1.0000000000 0.6542380556 0.4958448145 0.5071148944  Biso 1.0 Br 9 b
Br7 1.0000000000 0.8400677862 0.3288991217 0.8263111837  Biso 1.0 Br 9 b
Br8 1.0000000000 0.5046451934 0.3258259283 0.6600429682  Biso 1.0 Br 9 b
Ca9 1.0000000000 0.9946025769 0.5013922491 0.4133652419  Biso 1.0 Ca 9 b
Ca10 1.0000000000 0.9989375929 0.9986179631 0.9140059137  Biso 1.0 Ca 3 a
Ca11 1.0000000000 0.8410568991 0.1697373026 0.5807675737  Biso 1.0 Ca 9 b
Ca12 1.0000000000 0.9996910775 0.0004894359 0.4232679176  Biso 1.0 Ca 3 a
Li13 1.0000000000 0.9964245337 0.9989066615 0.7196924810  Biso 1.0 Li 3 a
Li14 1.0000000000 0.9938018401 0.4908226124 0.2243927921  Biso 1.0 Li 9 b
Li15 1.0000000000 0.5002365139 0.4842540692 0.5986256918  Biso 1.0 Li 9 b
Li16 1.0000000000 0.9986476107 0.9996780523 0.2404382728  Biso 1.0 Li 3 a
