# Computational Materials Screening: Highly Stable Phases of ABX3 Compounds
# F24Li8Sn8
data_F24Li8Sn8
_pd_phase_name F24Li8Sn8
_cell_length_a  10.5874862195
_cell_length_b  8.3420242993
_cell_length_c  9.0014879259
_cell_angle_alpha  84.6379982313
_cell_angle_beta  82.5948095183
_cell_angle_gamma  69.4706503728
_symmetry_space_group_name_H-M  'P1'
_symmetry_Int_Tables_Number  1
loop_
_symmetry_equiv_pos_site_id
_symmetry_equiv_pos_as_xyz
  1  x,y,z
loop_
 _atom_site_label
 _atom_site_occupancy
 _atom_site_fract_x
 _atom_site_fract_y
 _atom_site_fract_z
 _atom_site_thermal_displace_type
 _atom_site_B_iso_or_equiv
 _atom_site_type_symbol
 _atom_site_symmetry_multiplicity
 _atom_site_Wyckoff_label
F1 1.0000000000 0.7909666529 0.0468645498 0.2120677083  Biso 1.0 F 1 a
F2 1.0000000000 0.8434290294 0.6106674524 0.9933481857  Biso 1.0 F 1 a
F3 1.0000000000 0.8161177494 0.9603758921 0.8209936051  Biso 1.0 F 1 a
F4 1.0000000000 0.3096870772 0.8323965709 0.2305537009  Biso 1.0 F 1 a
F5 1.0000000000 0.8128895955 0.2333753751 0.6092027814  Biso 1.0 F 1 a
F6 1.0000000000 0.0239251546 0.4357826283 0.3800951317  Biso 1.0 F 1 a
F7 1.0000000000 0.4314106787 0.9690407604 0.6465391394  Biso 1.0 F 1 a
F8 1.0000000000 0.2666139540 0.5322151259 0.8091163472  Biso 1.0 F 1 a
F9 1.0000000000 0.5786355158 0.8991345580 0.0480321637  Biso 1.0 F 1 a
F10 1.0000000000 0.8777513843 0.1986491058 0.9551306647  Biso 1.0 F 1 a
F11 1.0000000000 0.7210906388 0.9597851264 0.5306640312  Biso 1.0 F 1 a
F12 1.0000000000 0.0857168555 0.8288897803 0.0994438061  Biso 1.0 F 1 a
F13 1.0000000000 0.6624779557 0.3131539455 0.3736389509  Biso 1.0 F 1 a
F14 1.0000000000 0.2352778846 0.4794832386 0.1502382345  Biso 1.0 F 1 a
F15 1.0000000000 0.5500020522 0.5907916245 0.6396593511  Biso 1.0 F 1 a
F16 1.0000000000 0.2377714773 0.3479667989 0.5679824578  Biso 1.0 F 1 a
F17 1.0000000000 0.0114123167 0.0232711863 0.3482775798  Biso 1.0 F 1 a
F18 1.0000000000 0.0580520878 0.2605856726 0.1001813529  Biso 1.0 F 1 a
F19 1.0000000000 0.9614963587 0.6957659248 0.6196377978  Biso 1.0 F 1 a
F20 1.0000000000 0.5882458814 0.5875007563 0.1420838461  Biso 1.0 F 1 a
F21 1.0000000000 0.0023740198 0.3460708938 0.7490367178  Biso 1.0 F 1 a
F22 1.0000000000 0.4986905931 0.1299167027 0.3221840863  Biso 1.0 F 1 a
F23 1.0000000000 0.3560318741 0.7624556588 0.9032280385  Biso 1.0 F 1 a
F24 1.0000000000 0.5000180501 0.2591013368 0.6556672840  Biso 1.0 F 1 a
Li25 1.0000000000 0.9633368605 0.0664580762 0.1283871235  Biso 1.0 Li 1 a
Li26 1.0000000000 0.9457136186 0.3858599296 0.9537474908  Biso 1.0 Li 1 a
Li27 1.0000000000 0.8153029536 0.1001782029 0.4210095775  Biso 1.0 Li 1 a
Li28 1.0000000000 0.4454104599 0.7851758020 0.0666178255  Biso 1.0 Li 1 a
Li29 1.0000000000 0.0475270437 0.4668800745 0.5772210773  Biso 1.0 Li 1 a
Li30 1.0000000000 0.2245627984 0.6458951082 0.9894145904  Biso 1.0 Li 1 a
Li31 1.0000000000 0.5358994161 0.0787268428 0.5172361777  Biso 1.0 Li 1 a
Li32 1.0000000000 0.6288031612 0.3665642532 0.5810965660  Biso 1.0 Li 1 a
Sn33 1.0000000000 0.7150191649 0.7224021922 0.1842190947  Biso 1.0 Sn 1 a
Sn34 1.0000000000 0.6074205471 0.2532144816 0.1701764293  Biso 1.0 Sn 1 a
Sn35 1.0000000000 0.7617746406 0.7774838267 0.7214898437  Biso 1.0 Sn 1 a
Sn36 1.0000000000 0.1454007817 0.7589575723 0.3224574209  Biso 1.0 Sn 1 a
Sn37 1.0000000000 0.9654335644 0.0941866371 0.7442288921  Biso 1.0 Sn 1 a
Sn38 1.0000000000 0.1888370946 0.2600231404 0.2634216186  Biso 1.0 Sn 1 a
Sn39 1.0000000000 0.3532546229 0.7596055495 0.6667213482  Biso 1.0 Sn 1 a
Sn40 1.0000000000 0.3132513395 0.2630468007 0.7735664518  Biso 1.0 Sn 1 a
