# Computational Materials Screening: Highly Stable Phases of ABX3 Compounds
# Ca8Cl24Na8
data_Ca8Cl24Na8
_pd_phase_name Ca8Cl24Na8
_cell_length_a  14.1456711163
_cell_length_b  14.1459762610
_cell_length_c  19.1636108133
_cell_angle_alpha  89.9987624265
_cell_angle_beta  90.0052190596
_cell_angle_gamma  120.0003256109
_symmetry_space_group_name_H-M  'R3'
_symmetry_Int_Tables_Number  146
loop_
_symmetry_equiv_pos_site_id
_symmetry_equiv_pos_as_xyz
  1  x,y,z
  2  -y,x-y,z
  3  -x+y,-x,z
  4  x+2/3,y+1/3,z+1/3
  5  -y+2/3,x-y+1/3,z+1/3
  6  -x+y+2/3,-x+1/3,z+1/3
  7  x+1/3,y+2/3,z+2/3
  8  -y+1/3,x-y+2/3,z+2/3
  9  -x+y+1/3,-x+2/3,z+2/3
loop_
 _atom_site_label
 _atom_site_occupancy
 _atom_site_fract_x
 _atom_site_fract_y
 _atom_site_fract_z
 _atom_site_thermal_displace_type
 _atom_site_B_iso_or_equiv
 _atom_site_type_symbol
 _atom_site_symmetry_multiplicity
 _atom_site_Wyckoff_label
Ca1 1.0000000000 0.0000000000 0.0000000000 0.2488474969  Biso 1.0 Ca 3 a
Ca2 1.0000000000 0.8391745546 0.1666656993 0.4133749005  Biso 1.0 Ca 9 b
Ca3 1.0000000000 0.5059081156 0.0018905948 0.2474620994  Biso 1.0 Ca 9 b
Ca4 1.0000000000 0.0013525637 0.9981102337 0.7535265821  Biso 1.0 Ca 3 a
Cl5 1.0000000000 0.6510849739 0.4893528700 0.6558014157  Biso 1.0 Cl 9 b
Cl6 1.0000000000 0.6854204481 0.1881463976 0.4926793682  Biso 1.0 Cl 9 b
Cl7 1.0000000000 0.1894689529 0.1771903998 0.5041477252  Biso 1.0 Cl 9 b
Cl8 1.0000000000 0.3567367642 0.0148766978 0.8360819127  Biso 1.0 Cl 9 b
Cl9 1.0000000000 0.4807063941 0.1521701052 0.3262063887  Biso 1.0 Cl 9 b
Cl10 1.0000000000 0.6454070366 0.9903425427 0.6542873928  Biso 1.0 Cl 9 b
Cl11 1.0000000000 0.1401083449 0.9731353012 0.6594452303  Biso 1.0 Cl 9 b
Cl12 1.0000000000 0.1779225019 0.6813565508 0.4920911941  Biso 1.0 Cl 9 b
Na13 1.0000000000 0.5040252207 0.0073177272 0.9422133069  Biso 1.0 Na 9 b
Na14 1.0000000000 0.3379368802 0.1672234179 0.2161361158  Biso 1.0 Na 9 b
Na15 1.0000000000 0.0005159133 0.9972423683 0.5570911982  Biso 1.0 Na 3 a
Na16 1.0000000000 0.0011081584 0.9981837517 0.0481766008  Biso 1.0 Na 3 a
