# Computational Materials Screening: Highly Stable Phases of ABX3 Compounds
# Br24Ca8Na8
data_Br24Ca8Na8
_pd_phase_name Br24Ca8Na8
_cell_length_a  10.9003511680
_cell_length_b  10.9502230527
_cell_length_c  10.9630638491
_cell_angle_alpha  85.8150471765
_cell_angle_beta  85.8669539770
_cell_angle_gamma  86.0561527390
_symmetry_space_group_name_H-M  'P1'
_symmetry_Int_Tables_Number  1
loop_
_symmetry_equiv_pos_site_id
_symmetry_equiv_pos_as_xyz
  1  x,y,z
loop_
 _atom_site_label
 _atom_site_occupancy
 _atom_site_fract_x
 _atom_site_fract_y
 _atom_site_fract_z
 _atom_site_thermal_displace_type
 _atom_site_B_iso_or_equiv
 _atom_site_type_symbol
 _atom_site_symmetry_multiplicity
 _atom_site_Wyckoff_label
Br1 1.0000000000 0.9937535658 0.8063780607 0.6697365468  Biso 1.0 Br 1 a
Br2 1.0000000000 0.4906266483 0.6700656147 0.8046768292  Biso 1.0 Br 1 a
Br3 1.0000000000 0.0004124054 0.6695653882 0.3145006386  Biso 1.0 Br 1 a
Br4 1.0000000000 0.9917450307 0.1787184946 0.8126227075  Biso 1.0 Br 1 a
Br5 1.0000000000 0.4957581730 0.8193774085 0.1941560572  Biso 1.0 Br 1 a
Br6 1.0000000000 0.4890362417 0.3281323028 0.6824462665  Biso 1.0 Br 1 a
Br7 1.0000000000 0.9924263335 0.3009795904 0.1623418116  Biso 1.0 Br 1 a
Br8 1.0000000000 0.4899212990 0.1740448837 0.3058012779  Biso 1.0 Br 1 a
Br9 1.0000000000 0.8160732828 0.6762916794 0.9966492050  Biso 1.0 Br 1 a
Br10 1.0000000000 0.1772603539 0.8269485789 0.9951182249  Biso 1.0 Br 1 a
Br11 1.0000000000 0.6742392932 0.7980132015 0.5009357260  Biso 1.0 Br 1 a
Br12 1.0000000000 0.6763825582 0.3061508777 0.9945792457  Biso 1.0 Br 1 a
Br13 1.0000000000 0.3065003569 0.6866091437 0.4975844845  Biso 1.0 Br 1 a
Br14 1.0000000000 0.3115496051 0.1888959794 0.9909969119  Biso 1.0 Br 1 a
Br15 1.0000000000 0.8076697435 0.1608138861 0.4996393287  Biso 1.0 Br 1 a
Br16 1.0000000000 0.1557897205 0.3108895107 0.4961348980  Biso 1.0 Br 1 a
Br17 1.0000000000 0.6523881535 0.9977137452 0.8156611751  Biso 1.0 Br 1 a
Br18 1.0000000000 0.2969817717 0.0017811946 0.6576976171  Biso 1.0 Br 1 a
Br19 1.0000000000 0.7991850894 0.9977587016 0.1752213741  Biso 1.0 Br 1 a
Br20 1.0000000000 0.8084341944 0.4942377528 0.6891716717  Biso 1.0 Br 1 a
Br21 1.0000000000 0.1778267179 0.0018227687 0.3024696727  Biso 1.0 Br 1 a
Br22 1.0000000000 0.1704154688 0.4973916671 0.8063965578  Biso 1.0 Br 1 a
Br23 1.0000000000 0.6741834581 0.4934981262 0.3193899860  Biso 1.0 Br 1 a
Br24 1.0000000000 0.3217917010 0.4981777718 0.1711854406  Biso 1.0 Br 1 a
Ca25 1.0000000000 0.7413071493 0.7553655083 0.7580008815  Biso 1.0 Ca 1 a
Ca26 1.0000000000 0.2411687711 0.7556543765 0.7537808859  Biso 1.0 Ca 1 a
Ca27 1.0000000000 0.7531039115 0.7370835143 0.2467523799  Biso 1.0 Ca 1 a
Ca28 1.0000000000 0.7362310942 0.2352388622 0.7392681851  Biso 1.0 Ca 1 a
Ca29 1.0000000000 0.2428290708 0.7413861926 0.2374445734  Biso 1.0 Ca 1 a
Ca30 1.0000000000 0.2435503625 0.2474301844 0.7374858787  Biso 1.0 Ca 1 a
Ca31 1.0000000000 0.7430222434 0.2479587509 0.2574607377  Biso 1.0 Ca 1 a
Ca32 1.0000000000 0.2420184363 0.2611501287 0.2458418644  Biso 1.0 Ca 1 a
Na33 1.0000000000 0.0411987007 0.0517708151 0.0586284943  Biso 1.0 Na 1 a
Na34 1.0000000000 0.5518392212 0.0528775127 0.0599379351  Biso 1.0 Na 1 a
Na35 1.0000000000 0.0479352962 0.0470107058 0.5428024246  Biso 1.0 Na 1 a
Na36 1.0000000000 0.9247206191 0.4390780241 0.9350258756  Biso 1.0 Na 1 a
Na37 1.0000000000 0.4454130425 0.9342239113 0.4339123486  Biso 1.0 Na 1 a
Na38 1.0000000000 0.4374966091 0.4374091748 0.9370137127  Biso 1.0 Na 1 a
Na39 1.0000000000 0.0466710013 0.5593831544 0.5540144624  Biso 1.0 Na 1 a
Na40 1.0000000000 0.5526668598 0.5617040773 0.5507992752  Biso 1.0 Na 1 a
