# Computational Materials Screening: Highly Stable Phases of ABX3 Compounds
# Br24Ge8Rb8
data_Br24Ge8Rb8
_pd_phase_name Br24Ge8Rb8
_cell_length_a  11.4342720156
_cell_length_b  11.4769202930
_cell_length_c  11.5150465087
_cell_angle_alpha  93.5082283158
_cell_angle_beta  91.1540936442
_cell_angle_gamma  90.4612185246
_symmetry_space_group_name_H-M  'P1'
_symmetry_Int_Tables_Number  1
loop_
_symmetry_equiv_pos_site_id
_symmetry_equiv_pos_as_xyz
  1  x,y,z
loop_
 _atom_site_label
 _atom_site_occupancy
 _atom_site_fract_x
 _atom_site_fract_y
 _atom_site_fract_z
 _atom_site_thermal_displace_type
 _atom_site_B_iso_or_equiv
 _atom_site_type_symbol
 _atom_site_symmetry_multiplicity
 _atom_site_Wyckoff_label
Br1 1.0000000000 0.9803610017 0.2798996502 0.7955018625  Biso 1.0 Br 1 a
Br2 1.0000000000 0.4836389421 0.1915648374 0.6987465169  Biso 1.0 Br 1 a
Br3 1.0000000000 0.0237141929 0.2191859090 0.2235549204  Biso 1.0 Br 1 a
Br4 1.0000000000 0.9924147547 0.7036369752 0.6973739797  Biso 1.0 Br 1 a
Br5 1.0000000000 0.5237559662 0.3148963849 0.2853476780  Biso 1.0 Br 1 a
Br6 1.0000000000 0.4962908459 0.7845847010 0.7759634793  Biso 1.0 Br 1 a
Br7 1.0000000000 0.9888688419 0.8018854861 0.2914617779  Biso 1.0 Br 1 a
Br8 1.0000000000 0.4821287195 0.7429915942 0.2051279242  Biso 1.0 Br 1 a
Br9 1.0000000000 0.3050764217 0.2050462439 0.9763225372  Biso 1.0 Br 1 a
Br10 1.0000000000 0.7242593494 0.2036250118 0.9865801993  Biso 1.0 Br 1 a
Br11 1.0000000000 0.2121776273 0.3106823396 0.4859133270  Biso 1.0 Br 1 a
Br12 1.0000000000 0.2163513268 0.8068824086 0.0126724762  Biso 1.0 Br 1 a
Br13 1.0000000000 0.7926771162 0.3130879814 0.4912633784  Biso 1.0 Br 1 a
Br14 1.0000000000 0.7998458299 0.8107173269 0.0116480868  Biso 1.0 Br 1 a
Br15 1.0000000000 0.3001765807 0.6907657771 0.5159277334  Biso 1.0 Br 1 a
Br16 1.0000000000 0.7156767734 0.6908924761 0.5028003395  Biso 1.0 Br 1 a
Br17 1.0000000000 0.2055464477 0.0079882460 0.7108436255  Biso 1.0 Br 1 a
Br18 1.0000000000 0.7917401283 0.9693772334 0.6885207563  Biso 1.0 Br 1 a
Br19 1.0000000000 0.2823006120 0.0317576076 0.3105639871  Biso 1.0 Br 1 a
Br20 1.0000000000 0.2978053775 0.5162552897 0.7919936873  Biso 1.0 Br 1 a
Br21 1.0000000000 0.7075475781 0.0405950340 0.3006889467  Biso 1.0 Br 1 a
Br22 1.0000000000 0.7108917500 0.4748238121 0.8100457574  Biso 1.0 Br 1 a
Br23 1.0000000000 0.2183516565 0.5308525521 0.1821785427  Biso 1.0 Br 1 a
Br24 1.0000000000 0.8018594881 0.5388114992 0.1830060434  Biso 1.0 Br 1 a
Ge25 1.0000000000 0.2702976625 0.2197876962 0.7562265644  Biso 1.0 Ge 1 a
Ge26 1.0000000000 0.7561204594 0.2566825472 0.7768539022  Biso 1.0 Ge 1 a
Ge27 1.0000000000 0.2431709161 0.2450744485 0.2729049054  Biso 1.0 Ge 1 a
Ge28 1.0000000000 0.2804791922 0.7306368076 0.7380708550  Biso 1.0 Ge 1 a
Ge29 1.0000000000 0.7399621372 0.2587848199 0.2771751397  Biso 1.0 Ge 1 a
Ge30 1.0000000000 0.7734672888 0.7494624514 0.7142995041  Biso 1.0 Ge 1 a
Ge31 1.0000000000 0.2569634950 0.7511869383 0.2216096556  Biso 1.0 Ge 1 a
Ge32 1.0000000000 0.7774277803 0.7592565399 0.2239632283  Biso 1.0 Ge 1 a
Rb33 1.0000000000 0.0085703886 0.0339676017 0.9651160692  Biso 1.0 Rb 1 a
Rb34 1.0000000000 0.5105853357 0.9818926753 0.0261713657  Biso 1.0 Rb 1 a
Rb35 1.0000000000 0.9977755162 0.0628553763 0.4823403604  Biso 1.0 Rb 1 a
Rb36 1.0000000000 0.0050160236 0.5527817127 0.9551871780  Biso 1.0 Rb 1 a
Rb37 1.0000000000 0.5074850527 0.9349986293 0.5083703463  Biso 1.0 Rb 1 a
Rb38 1.0000000000 0.4985970859 0.4733620726 0.0321877839  Biso 1.0 Rb 1 a
Rb39 1.0000000000 0.0075715318 0.5344497394 0.4312989542  Biso 1.0 Rb 1 a
Rb40 1.0000000000 0.5072140679 0.4650580347 0.5612135886  Biso 1.0 Rb 1 a
