# Computational Materials Screening: Highly Stable Phases of ABX3 Compounds
# F24Ge8Tl8
data_F24Ge8Tl8
_pd_phase_name F24Ge8Tl8
_cell_length_a  9.3702312058
_cell_length_b  9.7073244549
_cell_length_c  9.6466343578
_cell_angle_alpha  89.2701536699
_cell_angle_beta  89.6777870385
_cell_angle_gamma  93.6084768588
_symmetry_space_group_name_H-M  'P1'
_symmetry_Int_Tables_Number  1
loop_
_symmetry_equiv_pos_site_id
_symmetry_equiv_pos_as_xyz
  1  x,y,z
loop_
 _atom_site_label
 _atom_site_occupancy
 _atom_site_fract_x
 _atom_site_fract_y
 _atom_site_fract_z
 _atom_site_thermal_displace_type
 _atom_site_B_iso_or_equiv
 _atom_site_type_symbol
 _atom_site_symmetry_multiplicity
 _atom_site_Wyckoff_label
F1 1.0000000000 0.2416563335 0.0967709064 0.3097546082  Biso 1.0 F 1 a
F2 1.0000000000 0.2086516044 0.5973089041 0.2927172649  Biso 1.0 F 1 a
F3 1.0000000000 0.3246350039 0.9355439930 0.7730953935  Biso 1.0 F 1 a
F4 1.0000000000 0.7388351225 0.9236888502 0.3319208386  Biso 1.0 F 1 a
F5 1.0000000000 0.2199321007 0.4266559767 0.8062584670  Biso 1.0 F 1 a
F6 1.0000000000 0.8125201852 0.4207826056 0.2223261949  Biso 1.0 F 1 a
F7 1.0000000000 0.8090548491 0.8926370264 0.9146891956  Biso 1.0 F 1 a
F8 1.0000000000 0.5883338183 0.3927647873 0.7259579854  Biso 1.0 F 1 a
F9 1.0000000000 0.3313223930 0.2078624279 0.9301626653  Biso 1.0 F 1 a
F10 1.0000000000 0.3697615169 0.7187872373 0.9445072681  Biso 1.0 F 1 a
F11 1.0000000000 0.1426274953 0.3156008240 0.4342569526  Biso 1.0 F 1 a
F12 1.0000000000 0.7688813506 0.3102147983 0.9221604058  Biso 1.0 F 1 a
F13 1.0000000000 0.1355766750 0.8107237059 0.4469887587  Biso 1.0 F 1 a
F14 1.0000000000 0.7918395634 0.6191548480 0.8572141030  Biso 1.0 F 1 a
F15 1.0000000000 0.7498157085 0.2257604032 0.4193189663  Biso 1.0 F 1 a
F16 1.0000000000 0.7030087440 0.6566088814 0.4162395598  Biso 1.0 F 1 a
F17 1.0000000000 0.9285259250 0.1742971916 0.2083116651  Biso 1.0 F 1 a
F18 1.0000000000 0.9095365123 0.7328073494 0.2283201647  Biso 1.0 F 1 a
F19 1.0000000000 0.0814508251 0.1720654282 0.7862858607  Biso 1.0 F 1 a
F20 1.0000000000 0.4199925606 0.3211126096 0.3454969062  Biso 1.0 F 1 a
F21 1.0000000000 0.1055209292 0.7556519832 0.8556457920  Biso 1.0 F 1 a
F22 1.0000000000 0.4085887207 0.7982314429 0.3626659861  Biso 1.0 F 1 a
F23 1.0000000000 0.6716000498 0.1304814032 0.7269218205  Biso 1.0 F 1 a
F24 1.0000000000 0.6061949320 0.7883675605 0.7422274714  Biso 1.0 F 1 a
Ge25 1.0000000000 0.2380963484 0.2868598195 0.2657909955  Biso 1.0 Ge 1 a
Ge26 1.0000000000 0.2280700921 0.7919812534 0.2761670988  Biso 1.0 Ge 1 a
Ge27 1.0000000000 0.2671287928 0.2500890307 0.7511335223  Biso 1.0 Ge 1 a
Ge28 1.0000000000 0.7427399129 0.2345783905 0.2243400932  Biso 1.0 Ge 1 a
Ge29 1.0000000000 0.2857547614 0.7432328253 0.7703125149  Biso 1.0 Ge 1 a
Ge30 1.0000000000 0.7129349952 0.7535332717 0.2448286498  Biso 1.0 Ge 1 a
Ge31 1.0000000000 0.7653573727 0.3080929937 0.7281538816  Biso 1.0 Ge 1 a
Ge32 1.0000000000 0.8043817531 0.7856440882 0.7525482154  Biso 1.0 Ge 1 a
Tl33 1.0000000000 0.0655374370 0.0010818800 0.0136070979  Biso 1.0 Tl 1 a
Tl34 1.0000000000 0.0182326444 0.5106565182 0.0104721117  Biso 1.0 Tl 1 a
Tl35 1.0000000000 0.9797948337 0.0476541235 0.4837771552  Biso 1.0 Tl 1 a
Tl36 1.0000000000 0.5420103146 0.0042958696 0.9556293653  Biso 1.0 Tl 1 a
Tl37 1.0000000000 0.9606958099 0.5343716195 0.4571817010  Biso 1.0 Tl 1 a
Tl38 1.0000000000 0.5447532427 0.5024925507 0.9847862153  Biso 1.0 Tl 1 a
Tl39 1.0000000000 0.4921860922 0.0513553296 0.4983833677  Biso 1.0 Tl 1 a
Tl40 1.0000000000 0.4476757564 0.5478222425 0.5185251280  Biso 1.0 Tl 1 a
