# Computational Materials Screening: Highly Stable Phases of ABX3 Compounds
# Ge8I24Tl8
data_Ge8I24Tl8
_pd_phase_name Ge8I24Tl8
_cell_length_a  11.8150854930
_cell_length_b  11.8217589574
_cell_length_c  11.8441034192
_cell_angle_alpha  90.2601749056
_cell_angle_beta  94.1306903453
_cell_angle_gamma  90.3194067660
_symmetry_space_group_name_H-M  'P1'
_symmetry_Int_Tables_Number  1
loop_
_symmetry_equiv_pos_site_id
_symmetry_equiv_pos_as_xyz
  1  x,y,z
loop_
 _atom_site_label
 _atom_site_occupancy
 _atom_site_fract_x
 _atom_site_fract_y
 _atom_site_fract_z
 _atom_site_thermal_displace_type
 _atom_site_B_iso_or_equiv
 _atom_site_type_symbol
 _atom_site_symmetry_multiplicity
 _atom_site_Wyckoff_label
Ge1 1.0000000000 0.2450758016 0.7272873081 0.2338083008  Biso 1.0 Ge 1 a
Ge2 1.0000000000 0.2192055172 0.7474082315 0.7348779874  Biso 1.0 Ge 1 a
Ge3 1.0000000000 0.2649384514 0.2372798688 0.2366232524  Biso 1.0 Ge 1 a
Ge4 1.0000000000 0.7377277411 0.7776580690 0.2468412080  Biso 1.0 Ge 1 a
Ge5 1.0000000000 0.2413517411 0.2272087904 0.7502405419  Biso 1.0 Ge 1 a
Ge6 1.0000000000 0.7357671930 0.7595498758 0.7267616855  Biso 1.0 Ge 1 a
Ge7 1.0000000000 0.7486721932 0.2684215595 0.2212478542  Biso 1.0 Ge 1 a
Ge8 1.0000000000 0.7466228066 0.2807239695 0.7349233900  Biso 1.0 Ge 1 a
I9 1.0000000000 0.3080253743 0.6944460878 0.0127672021  Biso 1.0 I 1 a
I10 1.0000000000 0.1824689566 0.8081940504 0.5063737386  Biso 1.0 I 1 a
I11 1.0000000000 0.3175700976 0.3018032550 0.0180655643  Biso 1.0 I 1 a
I12 1.0000000000 0.6892424899 0.8063642345 0.0086688621  Biso 1.0 I 1 a
I13 1.0000000000 0.1918972756 0.1945968851 0.5157532846  Biso 1.0 I 1 a
I14 1.0000000000 0.8044927070 0.7036397166 0.5096867185  Biso 1.0 I 1 a
I15 1.0000000000 0.6901726550 0.1991487590 0.9988672147  Biso 1.0 I 1 a
I16 1.0000000000 0.8046586388 0.3095259145 0.5099095984  Biso 1.0 I 1 a
I17 1.0000000000 0.2035784952 0.0102247915 0.1834266099  Biso 1.0 I 1 a
I18 1.0000000000 0.3187861149 0.0085547067 0.7974059043  Biso 1.0 I 1 a
I19 1.0000000000 0.2887086331 0.5080726814 0.3192781120  Biso 1.0 I 1 a
I20 1.0000000000 0.8154908400 0.9985216163 0.2917963090  Biso 1.0 I 1 a
I21 1.0000000000 0.1755617068 0.5144422204 0.7010472035  Biso 1.0 I 1 a
I22 1.0000000000 0.7021398128 0.9930137505 0.6897079479  Biso 1.0 I 1 a
I23 1.0000000000 0.6832653259 0.4960849068 0.1998420152  Biso 1.0 I 1 a
I24 1.0000000000 0.7983584964 0.4986257889 0.8173125673  Biso 1.0 I 1 a
I25 1.0000000000 0.0104013446 0.6939198427 0.1837861546  Biso 1.0 I 1 a
I26 1.0000000000 0.0044229682 0.8063021371 0.8058236919  Biso 1.0 I 1 a
I27 1.0000000000 0.9817821004 0.3032409059 0.1944746270  Biso 1.0 I 1 a
I28 1.0000000000 0.5140868232 0.8080422861 0.3080222067  Biso 1.0 I 1 a
I29 1.0000000000 0.0169744248 0.1978624510 0.8120738017  Biso 1.0 I 1 a
I30 1.0000000000 0.5019223599 0.7005685256 0.6875725257  Biso 1.0 I 1 a
I31 1.0000000000 0.4903523907 0.1948075592 0.3114474155  Biso 1.0 I 1 a
I32 1.0000000000 0.5117083997 0.3154387253 0.6910967209  Biso 1.0 I 1 a
Tl33 1.0000000000 0.9325357978 0.0035740767 0.0262842569  Biso 1.0 Tl 1 a
Tl34 1.0000000000 0.9660544604 0.0045829301 0.5684252628  Biso 1.0 Tl 1 a
Tl35 1.0000000000 0.0731573774 0.4861534798 0.9726187677  Biso 1.0 Tl 1 a
Tl36 1.0000000000 0.4707682845 0.0022484926 0.0707730647  Biso 1.0 Tl 1 a
Tl37 1.0000000000 0.0200515577 0.5078896917 0.4313842948  Biso 1.0 Tl 1 a
Tl38 1.0000000000 0.4346368580 0.9949938739 0.5336298201  Biso 1.0 Tl 1 a
Tl39 1.0000000000 0.5335367396 0.5077646062 0.9336154490  Biso 1.0 Tl 1 a
Tl40 1.0000000000 0.5654362242 0.5082719187 0.4674973041  Biso 1.0 Tl 1 a
