# Computational Materials Screening: Highly Stable Phases of ABX3 Compounds
# Br24Ge8Tl8
data_Br24Ge8Tl8
_pd_phase_name Br24Ge8Tl8
_cell_length_a  11.2306233752
_cell_length_b  11.2902925236
_cell_length_c  11.3540394558
_cell_angle_alpha  94.1122720993
_cell_angle_beta  90.6045840271
_cell_angle_gamma  90.8906374244
_symmetry_space_group_name_H-M  'P1'
_symmetry_Int_Tables_Number  1
loop_
_symmetry_equiv_pos_site_id
_symmetry_equiv_pos_as_xyz
  1  x,y,z
loop_
 _atom_site_label
 _atom_site_occupancy
 _atom_site_fract_x
 _atom_site_fract_y
 _atom_site_fract_z
 _atom_site_thermal_displace_type
 _atom_site_B_iso_or_equiv
 _atom_site_type_symbol
 _atom_site_symmetry_multiplicity
 _atom_site_Wyckoff_label
Br1 1.0000000000 0.8089253384 0.8094314708 0.0200340209  Biso 1.0 Br 1 a
Br2 1.0000000000 0.7012753665 0.6842430860 0.5085910286  Biso 1.0 Br 1 a
Br3 1.0000000000 0.2104271263 0.7879439170 0.0095085487  Biso 1.0 Br 1 a
Br4 1.0000000000 0.6903992556 0.1964632865 0.9777220799  Biso 1.0 Br 1 a
Br5 1.0000000000 0.2893238896 0.6887769052 0.5036953940  Biso 1.0 Br 1 a
Br6 1.0000000000 0.8134609897 0.3039354844 0.4900018739  Biso 1.0 Br 1 a
Br7 1.0000000000 0.3113669049 0.1725315880 0.0299352983  Biso 1.0 Br 1 a
Br8 1.0000000000 0.1975700632 0.3095088324 0.5360111386  Biso 1.0 Br 1 a
Br9 1.0000000000 0.9916078748 0.7969023930 0.3089849583  Biso 1.0 Br 1 a
Br10 1.0000000000 0.0170293890 0.6767426842 0.7082561433  Biso 1.0 Br 1 a
Br11 1.0000000000 0.4855473092 0.7105144828 0.1889608740  Biso 1.0 Br 1 a
Br12 1.0000000000 0.0292490049 0.1828031184 0.2139766839  Biso 1.0 Br 1 a
Br13 1.0000000000 0.5212259658 0.7988604712 0.7720488144  Biso 1.0 Br 1 a
Br14 1.0000000000 0.0180104070 0.2701744678 0.8183076569  Biso 1.0 Br 1 a
Br15 1.0000000000 0.5270994496 0.3248501844 0.3083787776  Biso 1.0 Br 1 a
Br16 1.0000000000 0.5118357679 0.2026192276 0.6829229839  Biso 1.0 Br 1 a
Br17 1.0000000000 0.6977557243 0.0326933591 0.3026734356  Biso 1.0 Br 1 a
Br18 1.0000000000 0.7954679929 0.9709269641 0.6798507368  Biso 1.0 Br 1 a
Br19 1.0000000000 0.2972245826 0.0133025711 0.3173417299  Biso 1.0 Br 1 a
Br20 1.0000000000 0.8110526499 0.5278690141 0.1883419447  Biso 1.0 Br 1 a
Br21 1.0000000000 0.1990648326 0.9673189877 0.6948703929  Biso 1.0 Br 1 a
Br22 1.0000000000 0.6928484746 0.4732963634 0.8084016104  Biso 1.0 Br 1 a
Br23 1.0000000000 0.2065758293 0.5102043118 0.1914296096  Biso 1.0 Br 1 a
Br24 1.0000000000 0.2958893606 0.4778449982 0.8198748834  Biso 1.0 Br 1 a
Ge25 1.0000000000 0.7780068904 0.7513504725 0.2328279973  Biso 1.0 Ge 1 a
Ge26 1.0000000000 0.7439142858 0.7570633141 0.7242112571  Biso 1.0 Ge 1 a
Ge27 1.0000000000 0.2588146516 0.7348237668 0.2233868614  Biso 1.0 Ge 1 a
Ge28 1.0000000000 0.7420444040 0.2545689934 0.2780707360  Biso 1.0 Ge 1 a
Ge29 1.0000000000 0.2377387829 0.7472666334 0.7206874242  Biso 1.0 Ge 1 a
Ge30 1.0000000000 0.7252321706 0.2489311466 0.7636776811  Biso 1.0 Ge 1 a
Ge31 1.0000000000 0.2568040905 0.2186235609 0.2477114920  Biso 1.0 Ge 1 a
Ge32 1.0000000000 0.2376108371 0.2628054590 0.7506016652  Biso 1.0 Ge 1 a
Tl33 1.0000000000 0.0304039011 0.0142470288 0.9628539064  Biso 1.0 Tl 1 a
Tl34 1.0000000000 0.0082363079 0.0569722712 0.4755612472  Biso 1.0 Tl 1 a
Tl35 1.0000000000 0.5251147267 0.9526074389 0.0351436901  Biso 1.0 Tl 1 a
Tl36 1.0000000000 0.0168466936 0.5368832358 0.9666892498  Biso 1.0 Tl 1 a
Tl37 1.0000000000 0.5207168631 0.9456948372 0.5170900051  Biso 1.0 Tl 1 a
Tl38 1.0000000000 0.0058884273 0.5369180095 0.4407716752  Biso 1.0 Tl 1 a
Tl39 1.0000000000 0.4993930245 0.4368860917 0.0398210160  Biso 1.0 Tl 1 a
Tl40 1.0000000000 0.4903301320 0.4769624493 0.5737562651  Biso 1.0 Tl 1 a
